<?xml version="1.0" encoding="UTF-8"?>

<!-- generated on 2023-03-23 17:10:21.682802 by randomTrips.py UNKNOWN
<configuration>
    <end value="50"/>
    <net-file value="5GoIng.net.xml"/>
    <route-file value="5GoIng.trucks.rou.xml"/>
    <vtype-output value="truck"/>
</configuration>
-->

<!-- generated on 2023-03-23 17:10:21 by Eclipse SUMO duarouter Version 1.15.0
<configuration xmlns:xsi="http://www.w3.org/2001/XMLSchema-instance" xsi:noNamespaceSchemaLocation="http://sumo.dlr.de/xsd/duarouterConfiguration.xsd">

    <input>
        <net-file value="5GoIng.net.xml"/>
        <route-files value="trips.trips.xml"/>
    </input>

    <output>
        <output-file value="5GoIng.trucks.rou.xml"/>
        <vtype-output value="truck"/>
        <alternatives-output value="NUL"/>
    </output>

    <time>
        <begin value="0"/>
        <end value="50"/>
    </time>

    <report>
        <no-warnings value="true"/>
        <ignore-errors value="true"/>
        <no-step-log value="true"/>
    </report>

</configuration>
-->

<routes xmlns:xsi="http://www.w3.org/2001/XMLSchema-instance" xsi:noNamespaceSchemaLocation="http://sumo.dlr.de/xsd/routes_file.xsd">
    <vehicle id="truck1" depart="1.00">
        <route edges="1042026729 767516515#0 767516515#1 767516523#0 767516522#0 767516522#1 1016166670#0 1016166670#1"/>
    </vehicle>
    <vehicle id="truck2" depart="2.00">
        <route edges="767516521#0 767516521#1 767516523#2 767516520#0 767516520#1 767516511 767516508#0 767516508#1 767516508#2 767516508#3 767516508#4 -767516508#4 -767516508#3 -767516508#2 -767516508#1 -767516508#0 -767516511 767516519#0 767516519#1"/>
    </vehicle>
    <vehicle id="truck5" depart="5.00">
        <route edges="-767516512 767516517#0 767516517#1 767516523#6 767516523#7 767516523#0 767516523#1 767516523#2 767516520#0 767516520#1 767516511"/>
    </vehicle>
    <vehicle id="truck8" depart="8.00">
        <route edges="-767516512 767516517#0"/>
    </vehicle>
    <vehicle id="truck10" depart="10.00">
        <route edges="767516523#0 767516523#1 767516523#2 767516520#0"/>
    </vehicle>
    <vehicle id="truck11" depart="11.00">
        <route edges="164051425#1 164051425#2 -164051425#2 -164051425#1 -164051425#0 767516510#0 767516510#1 767516510#2 767516508#0 767516508#1 767516508#2 767516508#3 767516508#4 -767516508#4 -767516508#3"/>
    </vehicle>
    <vehicle id="truck12" depart="12.00">
        <route edges="865774624#1 865774624#2 164051425#0 164051425#1 164051425#2 -164051425#2 -164051425#1 -164051425#0 767516510#0 767516510#1 767516510#2 767516508#0 767516508#1"/>
    </vehicle>
    <vehicle id="truck13" depart="13.00">
        <route edges="-164051425#1 -164051425#0 767516510#0 767516510#1 767516510#2 767516508#0 767516508#1 767516508#2 767516508#3 767516508#4 -767516508#4 -767516508#3 -767516508#2 -767516508#1 -767516508#0"/>
    </vehicle>
    <vehicle id="truck19" depart="19.00">
        <route edges="767516523#4 767516523#5 767516523#6 767516516#0 767516516#1"/>
    </vehicle>
    <vehicle id="truck20" depart="20.00">
        <route edges="767516520#0 767516520#1 767516511 767516508#0 767516508#1 767516508#2 767516508#3 767516508#4 -767516508#4 -767516508#3 -767516508#2 -767516508#1 -767516508#0 -767516511 767516519#0 767516519#1 767516523#4 767516523#5 767516523#6 767516516#0 767516516#1 -1042026729 -146973220#1 -146973220#0"/>
    </vehicle>
    <vehicle id="truck22" depart="22.00">
        <route edges="-164051425#1 -164051425#0 767516510#0 767516510#1 767516510#2 767516508#0 767516508#1 767516508#2 767516508#3 767516508#4 -767516508#4 -767516508#3 -767516508#2 -767516508#1 -767516508#0 -767516511 767516519#0 767516519#1 767516523#4 767516523#5 767516523#6 767516523#7 767516523#0 767516522#0 767516522#1 1016166670#0 1016166670#1"/>
    </vehicle>
    <vehicle id="truck25" depart="25.00">
        <route edges="767516508#1 767516508#2 767516508#3 767516508#4 -767516508#4 -767516508#3 -767516508#2 -767516508#1 -767516508#0 -767516511 767516519#0 767516519#1 767516523#4 767516523#5 767516523#6 767516523#7 767516523#0 767516522#0 767516522#1 1016166670#0"/>
    </vehicle>
    <vehicle id="truck29" depart="29.00">
        <route edges="-767516508#3 -767516508#2 -767516508#1 -767516508#0 -767516511 767516519#0 767516519#1 767516523#4 767516523#5 767516523#6 767516523#7 767516523#0 767516523#1 767516523#2 767516520#0 767516520#1 767516511 767516508#0 767516508#1 767516508#2 767516508#3"/>
    </vehicle>
    <vehicle id="truck30" depart="30.00">
        <route edges="865774625 767516521#0 767516521#1 767516523#2 767516523#3 767516523#4 767516518#0 767516518#1"/>
    </vehicle>
    <vehicle id="truck31" depart="31.00">
        <route edges="767516515#1 767516523#0 767516523#1 767516523#2 767516520#0"/>
    </vehicle>
    <vehicle id="truck32" depart="32.00">
        <route edges="767516523#3 767516523#4 767516523#5 767516523#6 767516523#7 767516523#0 767516522#0 767516522#1"/>
    </vehicle>
    <vehicle id="truck33" depart="33.00">
        <route edges="-865774623#0 -767516512 767516517#0 767516517#1 767516523#6 767516516#0 767516516#1 -1042026729 -146973220#1 -146973220#0"/>
    </vehicle>
    <vehicle id="truck34" depart="34.00">
        <route edges="146973220#1"/>
    </vehicle>
    <vehicle id="truck42" depart="42.00">
        <route edges="767516508#3 767516508#4 -767516508#4 -767516508#3 -767516508#2 -767516508#1 -767516508#0 -767516511 767516519#0 767516519#1 767516523#4 767516523#5 767516523#6 767516523#7 767516523#0 767516522#0 767516522#1 1016166670#0"/>
    </vehicle>
    <vehicle id="truck43" depart="43.00">
        <route edges="865774625 767516521#0 767516521#1 767516523#2 767516523#3 767516523#4 767516518#0 767516518#1 767516512"/>
    </vehicle>
    <vehicle id="truck44" depart="44.00">
        <route edges="-164051425#1 -164051425#0 767516510#0 767516510#1 767516510#2 767516508#0 767516508#1 767516508#2 767516508#3 767516508#4 -767516508#4 -767516508#3 -767516508#2 -767516508#1 -767516508#0 -767516511 767516519#0 767516519#1 767516523#4 767516523#5 767516523#6 767516516#0 767516516#1 -1042026729 -146973220#1 -146973220#0"/>
    </vehicle>
    <vehicle id="truck45" depart="45.00">
        <route edges="-164051425#2 -164051425#1 -164051425#0 767516510#0 767516510#1 767516510#2 767516508#0 767516508#1 767516508#2 767516508#3 767516508#4 -767516508#4 -767516508#3 -767516508#2 -767516508#1 -767516508#0 -767516511 767516519#0 767516519#1 767516523#4 767516518#0"/>
    </vehicle>
    <vehicle id="truck47" depart="47.00">
        <route edges="-164051425#0 767516510#0 767516510#1 767516510#2 767516508#0 767516508#1 767516508#2 767516508#3 767516508#4"/>
    </vehicle>
    <vehicle id="truck49" depart="49.00">
        <route edges="865774624#2 164051425#0 164051425#1 164051425#2 -164051425#2 -164051425#1 -164051425#0 767516510#0 767516510#1 767516510#2 767516508#0 767516508#1 767516508#2 767516508#3 767516508#4 -767516508#4 -767516508#3 -767516508#2 -767516508#1 -767516508#0 -767516511 767516519#0 767516519#1 767516523#4 767516523#5"/>
    </vehicle>
</routes>
