<?xml version="1.0" encoding="UTF-8"?>

<!-- generated on 2023-03-23 17:24:24.321857 by randomTrips.py UNKNOWN
<configuration>
    <end value="50"/>
    <net-file value="5GoIng.net.xml"/>
    <pedestrians value="True"/>
    <route-file value="5GoIng.pedestrian.rou.xml"/>
</configuration>
-->

<!-- generated on 2023-03-23 17:24:24 by Eclipse SUMO duarouter Version 1.15.0
<configuration xmlns:xsi="http://www.w3.org/2001/XMLSchema-instance" xsi:noNamespaceSchemaLocation="http://sumo.dlr.de/xsd/duarouterConfiguration.xsd">

    <input>
        <net-file value="5GoIng.net.xml"/>
        <route-files value="trips.trips.xml"/>
    </input>

    <output>
        <output-file value="5GoIng.pedestrian.rou.xml"/>
        <alternatives-output value="NUL"/>
    </output>

    <time>
        <begin value="0"/>
        <end value="50"/>
    </time>

    <report>
        <no-warnings value="true"/>
        <ignore-errors value="true"/>
        <no-step-log value="true"/>
    </report>

</configuration>
-->

<routes xmlns:xsi="http://www.w3.org/2001/XMLSchema-instance" xsi:noNamespaceSchemaLocation="http://sumo.dlr.de/xsd/routes_file.xsd">
    <person id="0" depart="0.00">
        <walk edges="865774603#2 -865774603#1 -865774603#0"/>
    </person>
    <person id="1" depart="1.00">
        <walk edges="-865774610#6 -865774610#5 -865774610#4 -865774610#3 -865774610#2"/>
    </person>
    <person id="2" depart="2.00">
        <walk edges="865774607 -865774608#1 -865774610#4 -865774610#5 -865774610#6 865774610#7 -865774610#8 -865774617#1 865774606#0"/>
    </person>
    <person id="3" depart="3.00">
        <walk edges="865774610#8 -865774617#1 -865774606#0 865774606#1 -865774606#1"/>
    </person>
    <person id="4" depart="4.00">
        <walk edges="767516518#1 -865774606#2 -865774606#3 865774604 -865774603#0"/>
    </person>
    <person id="5" depart="5.00">
        <walk edges="-865774610#2 -865774610#3 -865774610#4 -865774610#5 -865774610#6 865774610#7 -865774610#8 -865774617#1 -865774606#0 865774606#1 767516518#0 767516523#4"/>
    </person>
    <person id="6" depart="6.00">
        <walk edges="-865774603#0 -865774603#1 -865774603#2 865774602 -865774610#0 -865774610#1"/>
    </person>
    <person id="7" depart="7.00">
        <walk edges="865774604 865774599 865774600#0"/>
    </person>
    <person id="8" depart="8.00">
        <walk edges="-865774610#2 -865774610#1 -865774610#0 865774602"/>
    </person>
    <person id="9" depart="9.00">
        <walk edges="865774610#2 -865774610#1 -865774610#0 865774602 -865774603#2 -865774603#1 -865774603#0 865774599 -865774600#0"/>
    </person>
    <person id="10" depart="10.00">
        <walk edges="865774610#1 -865774610#2 -865774610#3 -865774610#4 -865774610#5 -865774610#6 865774610#7 -865774610#8 -865774617#1 -865774606#0 865774606#1"/>
    </person>
    <person id="11" depart="11.00">
        <walk edges="-865774617#1 -865774610#8 865774610#7 -865774610#6 -865774610#5 -865774610#4 -865774608#1"/>
    </person>
    <person id="12" depart="12.00">
        <walk edges="865774624#0 -865774609 -865774610#3 -865774610#4 -865774610#5 -865774610#6 865774610#7 -865774610#8 -865774617#1"/>
    </person>
    <person id="13" depart="13.00">
        <walk edges="-865774606#2"/>
    </person>
    <person id="14" depart="14.00">
        <walk edges="865774610#5 -865774610#4 -865774610#3 -865774610#2 -865774610#1 -865774610#0 865774602 -865774603#2 -865774603#1 -865774603#0 865774603#0"/>
    </person>
    <person id="15" depart="15.00">
        <walk edges="865774610#2 -865774610#3 -865774610#4 -865774610#5 -865774610#6 865774610#7 -865774610#8 -865774617#1 -865774606#0 865774606#1 -865774606#2 865774606#3"/>
    </person>
    <person id="17" depart="17.00">
        <walk edges="-946758638#1 865774600#0"/>
    </person>
    <person id="18" depart="18.00">
        <walk edges="865774610#3 -865774610#2 -865774610#1 -865774610#0 865774602 -865774603#2 865774603#1"/>
    </person>
    <person id="19" depart="19.00">
        <walk edges="865774610#6 -865774610#5 -865774610#4 -865774610#3 -865774610#2 -865774610#1 -865774610#0 865774601"/>
    </person>
    <person id="20" depart="20.00">
        <walk edges="865774606#2 -865774606#3 865774604 -865774603#0 -865774603#1 -865774603#2"/>
    </person>
    <person id="21" depart="21.00">
        <walk edges="-865774610#3 -865774610#4 -865774610#5 -865774610#6 865774610#7 -865774610#7"/>
    </person>
    <person id="22" depart="22.00">
        <walk edges="-865774606#1 865774606#1 -865774606#0 -865774617#1 -865774610#8 865774610#7 -865774610#6 -865774610#5 -865774610#4 -865774610#3"/>
    </person>
    <person id="23" depart="23.00">
        <walk edges="-865774606#2 865774606#1 -865774606#0 -865774617#1 -865774610#8 865774610#7 -865774610#6"/>
    </person>
    <person id="26" depart="26.00">
        <walk edges="-865774610#5 865774616#0 865774616#1 865774616#2"/>
    </person>
    <person id="27" depart="27.00">
        <walk edges="865774604 865774603#0"/>
    </person>
    <person id="28" depart="28.00">
        <walk edges="-865774609 -865774610#3 -865774610#4 -865774610#5 -865774610#6 865774610#7 -865774610#8 -865774617#1 -865774606#0 865774606#1 -865774606#2 865774606#3"/>
    </person>
    <person id="29" depart="29.00">
        <walk edges="-865774608#1 -865774610#3 -865774610#2 -865774610#1 -865774610#0 865774602 -865774603#2 -865774603#1 -865774603#0 865774599 -865774600#0 -946758638#1"/>
    </person>
    <person id="30" depart="30.00">
        <walk edges="946758638#1 -865774600#0 865774599 -865774603#0 -865774603#1 865774603#2"/>
    </person>
    <person id="31" depart="31.00">
        <walk edges="865774600#1 -865774600#0 865774599 865774604 -865774606#3 -865774606#2 865774606#1 865774606#0"/>
    </person>
    <person id="32" depart="32.00">
        <walk edges="865774610#5 -865774610#4 865774608#1"/>
    </person>
    <person id="33" depart="33.00">
        <walk edges="-865774610#3 -865774610#2 -865774610#1 -865774610#0 865774602 -865774603#2 -865774603#1"/>
    </person>
    <person id="34" depart="34.00">
        <walk edges="-865774617#0 -865774610#8 865774610#7 -865774610#6 -865774610#5"/>
    </person>
    <person id="35" depart="35.00">
        <walk edges="-865774610#2 -865774610#3 -865774610#4 -865774610#5 -865774610#6 865774610#7 -865774610#8 865774617#0"/>
    </person>
    <person id="36" depart="36.00">
        <walk edges="865774610#7 -865774610#8 -865774617#0"/>
    </person>
    <person id="37" depart="37.00">
        <walk edges="865774604 -865774606#3 -865774606#2 865774606#1 -865774606#0 -865774617#1 -865774610#8 865774610#7 -865774610#6 767516520#1 767516511"/>
    </person>
    <person id="38" depart="38.00">
        <walk edges="865774616#1 865774616#0 -865774610#5 767516520#1"/>
    </person>
    <person id="39" depart="39.00">
        <walk edges="-865774610#5 -865774610#4"/>
    </person>
    <person id="40" depart="40.00">
        <walk edges="865774600#1 -865774600#0 865774599 -865774603#0 -865774603#1 -865774603#2 865774602 -865774610#0 -865774610#1 -865774610#2 -865774610#3 -865774610#4 -865774610#5"/>
    </person>
    <person id="41" depart="41.00">
        <walk edges="865774602 -865774610#0 -865774610#1 -865774610#2 -865774610#3 -865774610#4 865774616#0"/>
    </person>
    <person id="42" depart="42.00">
        <walk edges="767516511 767516520#1 -865774610#5 -865774610#4 -865774610#3 -865774610#2"/>
    </person>
    <person id="43" depart="43.00">
        <walk edges="946758638#1 -865774600#0 865774599 865774604 -865774606#3 -865774606#2 767516518#0 767516523#5"/>
    </person>
    <person id="44" depart="44.00">
        <walk edges="-865774606#2 -865774606#3 865774604 -865774603#0 -865774603#1 -865774603#2"/>
    </person>
    <person id="45" depart="45.00">
        <walk edges="-865774606#3 865774604 -865774603#0 -865774603#1 865774603#2"/>
    </person>
    <person id="46" depart="46.00">
        <walk edges="865774610#1 -865774610#2 -865774610#3 -865774610#4 -865774610#5 -865774610#6 865774610#7 -865774610#8 -865774617#1 -865774606#0 865774606#1 767516518#1"/>
    </person>
    <person id="47" depart="47.00">
        <walk edges="-865774606#0 865774606#1 -865774606#2 -865774606#3 865774604 865774599 -865774600#0 -946758638#1"/>
    </person>
    <person id="48" depart="48.00">
        <walk edges="946758638#1 -865774600#0 865774599"/>
    </person>
</routes>
