<?xml version="1.0" encoding="UTF-8"?>

<!-- generated on 2023-03-23 17:24:15 by Eclipse SUMO netedit Version 1.15.0
<configuration xmlns:xsi="http://www.w3.org/2001/XMLSchema-instance" xsi:noNamespaceSchemaLocation="http://sumo.dlr.de/xsd/netconvertConfiguration.xsd">

    <input>
        <sumo-net-file value="5GoIng.net.xml"/>
    </input>

    <output>
        <output-file value="5GoIng.net.xml"/>
    </output>

    <processing>
        <geometry.min-radius.fix.railways value="false"/>
        <geometry.max-grade.fix value="false"/>
        <offset.disable-normalization value="true"/>
        <lefthand value="0"/>
    </processing>

    <junctions>
        <no-turnarounds value="true"/>
        <junctions.corner-detail value="5"/>
        <junctions.limit-turn-speed value="5.50"/>
        <rectangular-lane-cut value="0"/>
    </junctions>

    <pedestrian>
        <walkingareas value="0"/>
    </pedestrian>

</configuration>
-->

<net version="1.9" junctionCornerDetail="5" limitTurnSpeed="5.50" xmlns:xsi="http://www.w3.org/2001/XMLSchema-instance" xsi:noNamespaceSchemaLocation="http://sumo.dlr.de/xsd/net_file.xsd">

    <location netOffset="-681869.64,-5402664.37" convBoundary="0.00,0.00,648.27,637.41" origBoundary="11.474495,48.750298,11.486511,48.756559" projParameter="+proj=utm +zone=32 +ellps=WGS84 +datum=WGS84 +units=m +no_defs"/>

    <type id="highway.bridleway" priority="1" numLanes="1" speed="2.78" allow="pedestrian" oneway="1" width="2.00"/>
    <type id="highway.bus_guideway" priority="1" numLanes="1" speed="27.78" allow="bus" oneway="1"/>
    <type id="highway.cycleway" priority="1" numLanes="1" speed="5.56" allow="bicycle" oneway="0" width="1.00"/>
    <type id="highway.footway" priority="1" numLanes="1" speed="2.78" allow="pedestrian" oneway="1" width="2.00"/>
    <type id="highway.ford" priority="1" numLanes="1" speed="2.78" allow="army" oneway="0"/>
    <type id="highway.living_street" priority="2" numLanes="1" speed="2.78" disallow="tram rail_urban rail rail_electric rail_fast ship" oneway="0"/>
    <type id="highway.motorway" priority="14" numLanes="2" speed="39.44" allow="private emergency authority army vip passenger hov taxi bus coach delivery truck trailer motorcycle evehicle custom1 custom2" oneway="1"/>
    <type id="highway.motorway_link" priority="9" numLanes="1" speed="22.22" allow="private emergency authority army vip passenger hov taxi bus coach delivery truck trailer motorcycle evehicle custom1 custom2" oneway="1"/>
    <type id="highway.path" priority="1" numLanes="1" speed="5.56" allow="pedestrian bicycle" oneway="0" width="2.00"/>
    <type id="highway.pedestrian" priority="1" numLanes="1" speed="2.78" allow="pedestrian" oneway="1" width="2.00"/>
    <type id="highway.primary" priority="12" numLanes="2" speed="27.78" disallow="tram rail_urban rail rail_electric rail_fast ship" oneway="0"/>
    <type id="highway.primary_link" priority="7" numLanes="1" speed="22.22" disallow="tram rail_urban rail rail_electric rail_fast ship" oneway="0"/>
    <type id="highway.raceway" priority="15" numLanes="2" speed="83.33" allow="vip" oneway="0"/>
    <type id="highway.residential" priority="3" numLanes="1" speed="13.89" disallow="tram rail_urban rail rail_electric rail_fast ship" oneway="0"/>
    <type id="highway.secondary" priority="11" numLanes="1" speed="27.78" disallow="tram rail_urban rail rail_electric rail_fast ship" oneway="0"/>
    <type id="highway.secondary_link" priority="6" numLanes="1" speed="22.22" disallow="tram rail_urban rail rail_electric rail_fast ship" oneway="0"/>
    <type id="highway.service" priority="1" numLanes="1" speed="5.56" allow="pedestrian delivery bicycle" oneway="0"/>
    <type id="highway.stairs" priority="1" numLanes="1" speed="1.39" allow="pedestrian" oneway="1" width="2.00"/>
    <type id="highway.step" priority="1" numLanes="1" speed="1.39" allow="pedestrian" oneway="1" width="2.00"/>
    <type id="highway.steps" priority="1" numLanes="1" speed="1.39" allow="pedestrian" oneway="1" width="2.00"/>
    <type id="highway.tertiary" priority="10" numLanes="1" speed="22.22" disallow="tram rail_urban rail rail_electric rail_fast ship" oneway="0"/>
    <type id="highway.tertiary_link" priority="5" numLanes="1" speed="22.22" disallow="tram rail_urban rail rail_electric rail_fast ship" oneway="0"/>
    <type id="highway.track" priority="1" numLanes="1" speed="5.56" allow="pedestrian motorcycle moped bicycle" oneway="0"/>
    <type id="highway.trunk" priority="13" numLanes="2" speed="27.78" disallow="pedestrian bicycle tram rail_urban rail rail_electric rail_fast ship" oneway="0"/>
    <type id="highway.trunk_link" priority="8" numLanes="1" speed="22.22" disallow="pedestrian bicycle tram rail_urban rail rail_electric rail_fast ship" oneway="0"/>
    <type id="highway.unclassified" priority="4" numLanes="1" speed="13.89" disallow="tram rail_urban rail rail_electric rail_fast ship" oneway="0"/>
    <type id="highway.unsurfaced" priority="1" numLanes="1" speed="8.33" disallow="tram rail_urban rail rail_electric rail_fast ship" oneway="0"/>
    <type id="railway.highspeed" priority="21" numLanes="1" speed="69.44" allow="rail_fast" oneway="1"/>
    <type id="railway.light_rail" priority="19" numLanes="1" speed="27.78" allow="rail_urban" oneway="1"/>
    <type id="railway.preserved" priority="16" numLanes="1" speed="27.78" allow="rail" oneway="1"/>
    <type id="railway.rail" priority="20" numLanes="1" speed="44.44" allow="rail" oneway="1"/>
    <type id="railway.subway" priority="18" numLanes="1" speed="27.78" allow="rail_urban" oneway="1"/>
    <type id="railway.tram" priority="17" numLanes="1" speed="13.89" allow="tram" oneway="1"/>

    <edge id=":17200870_0" function="internal">
        <lane id=":17200870_0_0" index="0" disallow="pedestrian tram rail_urban rail rail_electric rail_fast ship" speed="3.65" length="4.67" shape="140.05,147.38 140.89,146.21 141.70,145.83 142.48,146.25 143.25,147.48"/>
    </edge>
    <edge id=":2117911027_0" function="internal">
        <lane id=":2117911027_0_0" index="0" disallow="pedestrian tram rail_urban rail rail_electric rail_fast ship" speed="13.89" length="9.11" width="4.00" shape="201.39,481.21 200.53,478.69 199.49,477.11 198.45,475.54 197.56,473.02"/>
    </edge>
    <edge id=":2117911027_1" function="internal">
        <lane id=":2117911027_1_0" index="0" disallow="pedestrian tram rail_urban rail rail_electric rail_fast ship" speed="7.89" length="6.52" width="4.00" shape="201.46,472.14 202.01,473.86 202.81,475.29 203.85,476.42 205.14,477.26"/>
    </edge>
    <edge id=":2117911028_0" function="internal">
        <lane id=":2117911028_0_0" index="0" disallow="pedestrian tram rail_urban rail rail_electric rail_fast ship" speed="19.45" length="13.21" shape="201.12,505.83 197.76,505.04 194.65,504.74 191.50,504.74 188.02,504.83"/>
    </edge>
    <edge id=":2117911028_1" function="internal">
        <lane id=":2117911028_1_0" index="0" disallow="pedestrian tram rail_urban rail rail_electric rail_fast ship" speed="15.28" length="11.80" shape="187.96,501.63 199.75,501.25"/>
    </edge>
    <edge id=":251021099_0" function="internal">
        <lane id=":251021099_0_0" index="0" disallow="pedestrian tram rail_urban rail rail_electric rail_fast ship" speed="6.05" length="4.95" width="6.50" shape="199.95,501.23 200.37,496.30"/>
    </edge>
    <edge id=":251021099_1" function="internal">
        <lane id=":251021099_1_0" index="0" disallow="pedestrian tram rail_urban rail rail_electric rail_fast ship" speed="18.05" length="5.57" width="5.00" shape="199.95,501.23 205.52,501.08"/>
    </edge>
    <edge id=":7166186943_0" function="internal">
        <lane id=":7166186943_0_0" index="0" disallow="pedestrian tram rail_urban rail rail_electric rail_fast ship" speed="13.89" length="0.31" shape="166.71,334.89 166.65,334.59"/>
    </edge>
    <edge id=":7166186943_1" function="internal">
        <lane id=":7166186943_1_0" index="0" disallow="pedestrian tram rail_urban rail rail_electric rail_fast ship" speed="13.89" length="0.28" shape="169.77,333.90 169.83,334.18"/>
    </edge>
    <edge id=":7166186944_0" function="internal">
        <lane id=":7166186944_0_0" index="0" disallow="pedestrian tram rail_urban rail rail_electric rail_fast ship" speed="3.65" length="4.67" shape="395.89,-0.56 397.06,-1.40 397.95,-1.50 398.56,-0.84 398.89,0.56"/>
    </edge>
    <edge id=":7166186947_0" function="internal">
        <lane id=":7166186947_0_0" index="0" disallow="pedestrian tram rail_urban rail rail_electric rail_fast ship" speed="13.89" length="2.82" width="3.25" shape="247.68,424.06 247.10,426.76"/>
        <lane id=":7166186947_0_1" index="1" disallow="pedestrian tram rail_urban rail rail_electric rail_fast ship" speed="13.89" length="2.82" width="3.25" shape="244.58,423.25 243.93,426.06"/>
    </edge>
    <edge id=":7166186947_2" function="internal">
        <lane id=":7166186947_2_0" index="0" disallow="pedestrian tram rail_urban rail rail_electric rail_fast ship" speed="13.89" length="3.05" shape="237.58,424.64 238.38,421.64"/>
        <lane id=":7166186947_2_1" index="1" disallow="pedestrian tram rail_urban rail rail_electric rail_fast ship" speed="13.89" length="3.05" shape="240.75,425.35 241.48,422.45"/>
    </edge>
    <edge id=":7166186951_0" function="internal">
        <lane id=":7166186951_0_0" index="0" disallow="pedestrian tram rail_urban rail rail_electric rail_fast ship" speed="13.89" length="8.14" width="5.50" shape="261.80,492.64 268.48,497.28"/>
    </edge>
    <edge id=":7166186963_0" function="internal">
        <lane id=":7166186963_0_0" index="0" disallow="pedestrian tram rail_urban rail rail_electric rail_fast ship" speed="12.31" length="7.32" width="6.50" shape="205.32,477.35 207.27,478.25 208.71,478.68 210.21,478.76 212.37,478.61"/>
    </edge>
    <edge id=":7166186966_0" function="internal">
        <lane id=":7166186966_0_0" index="0" disallow="pedestrian tram rail_urban rail rail_electric rail_fast ship" speed="13.89" length="20.49" width="5.50" shape="242.75,452.79 242.50,459.42 243.41,464.69 244.94,468.96 246.56,472.59"/>
    </edge>
    <edge id=":7166186966_1" function="internal">
        <lane id=":7166186966_1_0" index="0" disallow="pedestrian tram rail_urban rail rail_electric rail_fast ship" speed="18.05" length="22.87" width="5.00" shape="239.53,452.36 239.01,459.41 239.15,465.62 239.50,470.92 239.60,475.20"/>
    </edge>
    <edge id=":7166186966_2" function="internal">
        <lane id=":7166186966_2_0" index="0" disallow="pedestrian tram rail_urban rail rail_electric rail_fast ship" speed="13.89" length="21.65" width="3.25" shape="228.00,472.29 230.04,468.88 231.32,464.23 232.20,458.41 233.08,451.49"/>
    </edge>
    <edge id=":7166186966_3" function="internal">
        <lane id=":7166186966_3_0" index="0" disallow="pedestrian tram rail_urban rail rail_electric rail_fast ship" speed="18.05" length="23.11" width="3.25" shape="234.36,474.95 236.30,451.93"/>
    </edge>
    <edge id=":7166186967_0" function="internal">
        <lane id=":7166186967_0_0" index="0" disallow="pedestrian tram rail_urban rail rail_electric rail_fast ship" speed="13.89" length="10.77" shape="298.36,513.88 295.44,512.85 293.26,512.16 291.04,511.58 288.02,510.89"/>
    </edge>
    <edge id=":7166186967_1" function="internal">
        <lane id=":7166186967_1_0" index="0" disallow="pedestrian tram rail_urban rail rail_electric rail_fast ship" speed="13.89" length="11.39" shape="289.42,504.64 292.79,505.36 295.09,505.86 297.36,506.49 300.61,507.60"/>
        <lane id=":7166186967_1_1" index="1" disallow="pedestrian tram rail_urban rail rail_electric rail_fast ship" speed="13.89" length="11.39" shape="288.72,507.77 291.97,508.46 294.20,508.94 296.39,509.54 299.53,510.61"/>
    </edge>
    <edge id=":7166186974_0" function="internal">
        <lane id=":7166186974_0_0" index="0" disallow="pedestrian tram rail_urban rail rail_electric rail_fast ship" speed="13.89" length="7.59" width="5.00" shape="228.27,539.34 227.98,537.10 227.84,535.57 227.79,534.03 227.79,531.78"/>
    </edge>
    <edge id=":7166186975_0" function="internal">
        <lane id=":7166186975_0_0" index="0" disallow="pedestrian tram rail_urban rail rail_electric rail_fast ship" speed="13.89" length="9.85" width="5.00" shape="227.97,549.35 228.09,546.43 228.35,544.43 228.51,542.43 228.30,539.53"/>
    </edge>
    <edge id=":7166186975_1" function="internal">
        <lane id=":7166186975_1_0" index="0" disallow="pedestrian tram rail_urban rail rail_electric rail_fast ship" speed="13.89" length="9.27" width="3.75" shape="233.79,540.50 232.57,542.96 231.85,544.73 231.51,546.58 231.45,549.31"/>
    </edge>
    <edge id=":7166186976_0" function="internal">
        <lane id=":7166186976_0_0" index="0" disallow="pedestrian tram rail_urban rail rail_electric rail_fast ship" speed="13.89" length="7.64" width="5.50" shape="236.86,533.30 236.08,535.43 235.51,536.87 234.87,538.28 233.88,540.32"/>
    </edge>
    <edge id=":7166186977_0" function="internal">
        <lane id=":7166186977_0_0" index="0" disallow="pedestrian tram rail_urban rail rail_electric rail_fast ship" speed="13.89" length="7.24" width="5.00" shape="266.34,510.92 264.22,511.31 262.79,511.63 261.37,512.01 259.30,512.61"/>
    </edge>
    <edge id=":7166186978_0" function="internal">
        <lane id=":7166186978_0_0" index="0" disallow="pedestrian tram rail_urban rail rail_electric rail_fast ship" speed="13.89" length="13.45" width="5.00" shape="279.73,509.04 276.30,508.74 273.15,509.22 269.99,510.07 266.53,510.89"/>
    </edge>
    <edge id=":7166186978_1" function="internal">
        <lane id=":7166186978_1_0" index="0" disallow="pedestrian tram rail_urban rail rail_electric rail_fast ship" speed="13.89" length="11.94" shape="270.14,498.45 272.77,500.16 275.00,501.21 277.55,501.97 281.13,502.79"/>
    </edge>
    <edge id=":7166186978_2" function="internal">
        <lane id=":7166186978_2_0" index="0" disallow="pedestrian tram rail_urban rail rail_electric rail_fast ship" speed="13.89" length="13.87" shape="266.64,504.61 269.91,505.05 272.84,505.09 276.11,505.22 280.43,505.91"/>
    </edge>
    <edge id=":7166186979_0" function="internal">
        <lane id=":7166186979_0_0" index="0" disallow="tram rail_urban rail rail_electric rail_fast ship" speed="13.89" length="8.09" width="5.50" shape="258.47,503.30 260.85,503.57 262.48,503.79 264.10,504.08 266.45,504.57"/>
    </edge>
    <edge id=":7166186980_0" function="internal">
        <lane id=":7166186980_0_0" index="0" disallow="pedestrian tram rail_urban rail rail_electric rail_fast ship" speed="22.22" length="7.18" width="5.00" shape="239.89,480.26 241.34,487.30"/>
    </edge>
    <edge id=":7166186981_0" function="internal">
        <lane id=":7166186981_0_0" index="0" disallow="pedestrian tram rail_urban rail rail_electric rail_fast ship" speed="22.22" length="3.75" width="5.00" shape="239.55,476.34 239.51,477.46 239.53,478.22 239.64,478.98 239.85,480.07"/>
    </edge>
    <edge id=":7166186981_1" function="internal">
        <lane id=":7166186981_1_0" index="0" disallow="tram rail_urban rail rail_electric rail_fast ship" speed="22.22" length="4.86" width="5.50" shape="234.06,480.92 234.34,479.52 234.37,478.54 234.30,477.54 234.30,476.10"/>
    </edge>
    <edge id=":7166186982_0" function="internal">
        <lane id=":7166186982_0_0" index="0" disallow="tram rail_urban rail rail_electric rail_fast ship" speed="22.22" length="6.48" width="5.50" shape="232.25,487.35 234.01,481.12"/>
    </edge>
    <edge id=":7166186983_0" function="internal">
        <lane id=":7166186983_0_0" index="0" disallow="tram rail_urban rail rail_electric rail_fast ship" speed="22.22" length="8.88" width="5.00" shape="205.83,501.06 214.71,501.05"/>
    </edge>
    <edge id=":7166186984_0" function="internal">
        <lane id=":7166186984_0_0" index="0" disallow="pedestrian tram rail_urban rail rail_electric rail_fast ship" speed="22.22" length="7.96" width="5.50" shape="212.27,509.62 204.77,506.95"/>
    </edge>
    <edge id=":7166206288_0" function="internal">
        <lane id=":7166206288_0_0" index="0" disallow="pedestrian tram rail_urban rail rail_electric rail_fast ship" speed="9.45" length="9.02" width="5.50" shape="241.99,525.06 240.77,525.84 239.57,527.33 238.36,529.53 237.17,532.45"/>
    </edge>
    <edge id=":7166206288_1" function="internal">
        <lane id=":7166206288_1_0" index="0" disallow="pedestrian tram rail_urban rail rail_electric rail_fast ship" speed="14.21" length="8.70" width="7.00" shape="241.99,525.06 239.55,525.88 237.81,526.27 236.03,526.25 233.50,525.87"/>
    </edge>
    <edge id=":7166206292_0" function="internal">
        <lane id=":7166206292_0_0" index="0" disallow="pedestrian tram rail_urban rail rail_electric rail_fast ship" speed="9.37" length="8.75" width="7.00" shape="258.40,512.87 255.44,513.84 253.19,514.83 251.65,515.84 250.82,516.88"/>
    </edge>
    <edge id=":7166206292_1" function="internal">
        <lane id=":7166206292_1_0" index="0" disallow="pedestrian tram rail_urban rail rail_electric rail_fast ship" speed="13.36" length="8.36" width="7.00" shape="252.29,508.83 252.48,511.28 252.35,512.99 251.83,514.63 250.82,516.88"/>
    </edge>
    <edge id=":7166206295_0" function="internal">
        <lane id=":7166206295_0_0" index="0" disallow="tram rail_urban rail rail_electric rail_fast ship" speed="9.70" length="9.09" width="5.50" shape="249.14,500.41 250.18,501.33 251.94,502.10 254.42,502.73 257.61,503.20"/>
    </edge>
    <edge id=":7166206295_1" function="internal">
        <lane id=":7166206295_1_0" index="0" disallow="tram rail_urban rail rail_electric rail_fast ship" speed="14.59" length="8.93" width="7.00" shape="249.14,500.41 250.61,502.60 251.47,504.22 251.94,505.98 252.27,508.59"/>
    </edge>
    <edge id=":7166206298_0" function="internal">
        <lane id=":7166206298_0_0" index="0" disallow="pedestrian tram rail_urban rail rail_electric rail_fast ship" speed="9.64" length="8.86" width="7.00" shape="241.58,488.49 242.33,491.59 243.13,493.96 243.99,495.61 244.91,496.54"/>
    </edge>
    <edge id=":7166206298_1" function="internal">
        <lane id=":7166206298_1_0" index="0" disallow="pedestrian tram rail_urban rail rail_electric rail_fast ship" speed="13.84" length="8.70" width="7.00" shape="236.73,494.11 239.29,494.21 241.05,494.53 242.68,495.24 244.91,496.54"/>
    </edge>
    <edge id=":7166206301_0" function="internal">
        <lane id=":7166206301_0_0" index="0" disallow="pedestrian tram rail_urban rail rail_electric rail_fast ship" speed="10.71" length="8.99" width="5.50" shape="228.43,496.17 230.35,494.57 231.11,492.95 231.41,490.98 231.96,488.33"/>
    </edge>
    <edge id=":7166206301_1" function="internal">
        <lane id=":7166206301_1_0" index="0" disallow="pedestrian tram rail_urban rail rail_electric rail_fast ship" speed="12.90" length="8.66" width="7.00" shape="228.43,496.17 230.63,494.90 232.29,494.29 234.07,494.10 236.63,494.11"/>
    </edge>
    <edge id=":7166206303_0" function="internal">
        <lane id=":7166206303_0_0" index="0" disallow="pedestrian tram rail_urban rail rail_electric rail_fast ship" speed="9.10" length="8.70" width="7.00" shape="215.86,501.10 218.93,501.11 221.35,500.86 223.12,500.35 224.24,499.59"/>
    </edge>
    <edge id=":7166206303_1" function="internal">
        <lane id=":7166206303_1_0" index="0" disallow="pedestrian tram rail_urban rail rail_electric rail_fast ship" speed="13.47" length="8.05" width="7.00" shape="220.60,506.59 221.14,504.28 221.74,502.75 222.68,501.39 224.24,499.59"/>
    </edge>
    <edge id=":7166206306_0" function="internal">
        <lane id=":7166206306_0_0" index="0" disallow="pedestrian tram rail_urban rail rail_electric rail_fast ship" speed="9.28" length="9.20" width="5.50" shape="221.08,515.47 220.35,514.13 218.89,512.81 216.71,511.51 213.81,510.22"/>
    </edge>
    <edge id=":7166206306_1" function="internal">
        <lane id=":7166206306_1_0" index="0" disallow="pedestrian tram rail_urban rail rail_electric rail_fast ship" speed="15.43" length="8.84" width="7.00" shape="221.08,515.47 220.39,512.94 220.06,511.16 220.11,509.35 220.56,506.79"/>
    </edge>
    <edge id=":7166206310_0" function="internal">
        <lane id=":7166206310_0_0" index="0" disallow="pedestrian tram rail_urban rail rail_electric rail_fast ship" speed="14.60" length="8.32" width="7.00" shape="233.30,525.83 230.90,525.35 229.30,524.78 227.85,523.87 225.90,522.37"/>
    </edge>
    <edge id=":7166206310_1" function="internal">
        <lane id=":7166206310_1_0" index="0" disallow="pedestrian tram rail_urban rail rail_electric rail_fast ship" speed="9.00" length="8.81" width="7.00" shape="227.79,530.77 227.68,527.66 227.33,525.22 226.74,523.45 225.90,522.37"/>
    </edge>
    <edge id=":7166206313_0" function="internal">
        <lane id=":7166206313_0_0" index="0" disallow="pedestrian tram rail_urban rail rail_electric rail_fast ship" speed="13.89" length="8.45" shape="234.07,580.10 232.91,577.88 232.11,576.34 231.48,574.75 230.84,572.34"/>
    </edge>
    <edge id=":7166206313_1" function="internal">
        <lane id=":7166206313_1_0" index="0" allow="bicycle" speed="9.72" length="11.78" width="3.75" shape="236.94,566.88 236.58,570.17 236.25,572.85 236.38,575.45 237.43,578.44"/>
    </edge>
    <edge id=":7166206313_2" function="internal">
        <lane id=":7166206313_2_0" index="0" disallow="pedestrian tram rail_urban rail rail_electric rail_fast ship" speed="13.89" length="8.31" width="3.75" shape="234.05,570.86 234.91,573.17 235.58,574.72 236.32,576.24 237.43,578.44"/>
    </edge>
    <edge id=":7166206315_0" function="internal">
        <lane id=":7166206315_0_0" index="0" disallow="pedestrian tram rail_urban rail rail_electric rail_fast ship" speed="13.89" length="3.71" width="6.50" shape="200.44,496.11 201.68,492.61"/>
    </edge>
    <edge id=":8069940667_0" function="internal">
        <lane id=":8069940667_0_0" index="0" disallow="pedestrian tram rail_urban rail rail_electric rail_fast ship" speed="16.67" length="7.49" width="3.25" shape="184.77,504.89 177.28,505.05"/>
    </edge>
    <edge id=":8069940667_1" function="internal">
        <lane id=":8069940667_1_0" index="0" disallow="pedestrian tram rail_urban rail rail_electric rail_fast ship" speed="16.67" length="7.50" shape="177.22,501.80 184.72,501.69"/>
    </edge>
    <edge id=":8069940684_0" function="internal">
        <lane id=":8069940684_0_0" index="0" allow="pedestrian bicycle" speed="5.56" length="7.68" width="4.08" shape="267.46,520.49 265.43,521.27 264.29,522.31 263.44,523.74 262.27,525.72"/>
    </edge>
    <edge id=":8069942288_0" function="internal">
        <lane id=":8069942288_0_0" index="0" disallow="pedestrian tram rail_urban rail rail_electric rail_fast ship" speed="13.89" length="7.05" width="6.50" shape="202.11,491.04 202.42,488.97 202.54,487.54 202.42,486.11 202.02,484.06"/>
    </edge>
    <edge id=":8069942289_0" function="internal">
        <lane id=":8069942289_0_0" index="0" disallow="pedestrian tram rail_urban rail rail_electric rail_fast ship" speed="13.89" length="7.22" width="5.50" shape="248.77,477.54 252.71,483.59"/>
    </edge>
    <edge id=":8069942299_0" function="internal">
        <lane id=":8069942299_0_0" index="0" disallow="pedestrian tram rail_urban rail rail_electric rail_fast ship" speed="13.89" length="0.27" shape="318.19,228.40 318.10,228.64"/>
        <lane id=":8069942299_0_1" index="1" disallow="pedestrian tram rail_urban rail rail_electric rail_fast ship" speed="13.89" length="0.27" shape="315.20,227.27 315.10,227.53"/>
    </edge>
    <edge id=":8069942299_2" function="internal">
        <lane id=":8069942299_2_0" index="0" disallow="pedestrian tram rail_urban rail rail_electric rail_fast ship" speed="13.89" length="0.32" shape="309.09,225.32 309.21,225.01"/>
        <lane id=":8069942299_2_1" index="1" disallow="pedestrian tram rail_urban rail rail_electric rail_fast ship" speed="13.89" length="0.32" shape="312.10,226.43 312.21,226.14"/>
    </edge>
    <edge id=":8069942300_0" function="internal">
        <lane id=":8069942300_0_0" index="0" disallow="pedestrian tram rail_urban rail rail_electric rail_fast ship" speed="13.89" length="0.32" shape="330.94,194.43 330.82,194.74"/>
        <lane id=":8069942300_0_1" index="1" disallow="pedestrian tram rail_urban rail rail_electric rail_fast ship" speed="13.89" length="0.32" shape="327.93,193.32 327.82,193.61"/>
    </edge>
    <edge id=":8069942300_2" function="internal">
        <lane id=":8069942300_2_0" index="0" disallow="pedestrian tram rail_urban rail rail_electric rail_fast ship" speed="13.89" length="0.27" shape="321.84,191.36 321.93,191.11"/>
        <lane id=":8069942300_2_1" index="1" disallow="pedestrian tram rail_urban rail rail_electric rail_fast ship" speed="13.89" length="0.27" shape="324.83,192.48 324.93,192.22"/>
    </edge>
    <edge id=":8069942303_0" function="internal">
        <lane id=":8069942303_0_0" index="0" allow="pedestrian bicycle" speed="5.56" length="3.00" width="2.00" shape="307.02,202.17 308.05,199.35"/>
    </edge>
    <edge id=":8069942316_0" function="internal">
        <lane id=":8069942316_0_0" index="0" allow="pedestrian bicycle" speed="5.56" length="8.86" width="2.00" shape="226.20,478.56 224.08,469.97"/>
    </edge>
    <edge id=":8069942316_1" function="internal">
        <lane id=":8069942316_1_0" index="0" allow="bicycle" speed="7.17" length="6.65" width="2.00" shape="226.20,478.56 225.97,476.92 226.16,475.36 226.80,473.86 227.87,472.43"/>
    </edge>
    <edge id=":8069942316_2" function="internal">
        <lane id=":8069942316_2_0" index="0" disallow="pedestrian tram rail_urban rail rail_electric rail_fast ship" speed="11.94" length="7.14" width="4.00" shape="221.97,476.16 223.98,475.55 225.29,474.91 226.42,473.96 227.87,472.43"/>
    </edge>
    <edge id=":8069942334_0" function="internal">
        <lane id=":8069942334_0_0" index="0" disallow="pedestrian tram rail_urban rail rail_electric rail_fast ship" speed="13.89" length="0.28" shape="396.14,17.07 396.04,17.33"/>
        <lane id=":8069942334_0_1" index="1" disallow="pedestrian tram rail_urban rail rail_electric rail_fast ship" speed="13.89" length="0.28" shape="393.14,15.95 393.04,16.22"/>
    </edge>
    <edge id=":8069942334_2" function="internal">
        <lane id=":8069942334_2_0" index="0" disallow="pedestrian tram rail_urban rail rail_electric rail_fast ship" speed="13.89" length="0.32" shape="387.03,14.01 387.15,13.71"/>
        <lane id=":8069942334_2_1" index="1" disallow="pedestrian tram rail_urban rail rail_electric rail_fast ship" speed="13.89" length="0.32" shape="390.04,15.12 390.14,14.83"/>
    </edge>
    <edge id=":8069942350_0" function="internal">
        <lane id=":8069942350_0_0" index="0" disallow="pedestrian tram rail_urban rail rail_electric rail_fast ship" speed="13.89" length="8.00" width="3.75" shape="349.72,532.31 342.19,529.60"/>
    </edge>
    <edge id=":8069942350_1" function="internal">
        <lane id=":8069942350_1_0" index="0" disallow="pedestrian tram rail_urban rail rail_electric rail_fast ship" speed="13.89" length="8.26" width="6.75" shape="343.37,526.33 345.72,526.88 347.43,526.85 349.14,526.81 351.49,527.36"/>
    </edge>
    <edge id=":8370040291_0" function="internal">
        <lane id=":8370040291_0_0" index="0" allow="pedestrian delivery bicycle" speed="3.65" length="4.67" shape="144.11,416.56 143.29,417.75 142.48,418.13 141.69,417.71 140.91,416.50"/>
    </edge>
    <edge id=":8370040294_0" function="internal">
        <lane id=":8370040294_0_0" index="0" allow="delivery bicycle" speed="5.32" length="5.27" shape="180.18,396.24 179.68,394.99 178.84,394.19 177.66,393.83 176.13,393.92"/>
    </edge>
    <edge id=":8370040294_1" function="internal">
        <lane id=":8370040294_1_0" index="0" disallow="pedestrian tram rail_urban rail rail_electric rail_fast ship" speed="13.89" length="9.38" shape="180.18,396.24 178.50,387.01"/>
    </edge>
    <edge id=":8370040294_2" function="internal">
        <lane id=":8370040294_2_0" index="0" disallow="pedestrian tram rail_urban rail rail_electric rail_fast ship" speed="13.89" length="9.38" width="4.00" shape="181.62,386.31 184.08,395.36"/>
    </edge>
    <edge id=":8370040294_3" function="internal">
        <lane id=":8370040294_3_0" index="0" allow="delivery bicycle" speed="6.96" length="3.44" shape="181.62,386.31 181.82,389.16 181.61,389.70"/>
    </edge>
    <edge id=":8370040294_7" function="internal">
        <lane id=":8370040294_7_0" index="0" allow="delivery bicycle" speed="6.96" length="7.36" shape="181.61,389.70 180.97,391.38 179.07,392.96 176.13,393.92"/>
    </edge>
    <edge id=":8370040294_4" function="internal">
        <lane id=":8370040294_4_0" index="0" allow="delivery bicycle" speed="5.18" length="5.49" shape="175.55,390.77 177.11,390.29 178.12,389.50 178.58,388.40 178.50,387.01"/>
    </edge>
    <edge id=":8370040294_5" function="internal">
        <lane id=":8370040294_5_0" index="0" allow="delivery bicycle" speed="7.19" length="10.92" shape="175.55,390.77 178.78,390.56 181.28,391.26 183.05,392.85 184.08,395.36"/>
    </edge>
    <edge id=":8370040294_6" function="internal">
        <lane id=":8370040294_6_0" index="0" allow="pedestrian delivery bicycle" speed="3.65" length="4.67" shape="175.55,390.77 176.88,391.34 177.42,392.06 177.17,392.91 176.13,393.92"/>
    </edge>
    <edge id=":8763919378_0" function="internal">
        <lane id=":8763919378_0_0" index="0" disallow="pedestrian tram rail_urban rail rail_electric rail_fast ship" speed="13.89" length="7.33" shape="230.79,572.15 229.24,564.98"/>
    </edge>
    <edge id=":8763919378_1" function="internal">
        <lane id=":8763919378_1_0" index="0" disallow="pedestrian tram rail_urban rail rail_electric rail_fast ship" speed="13.89" length="6.54" shape="232.64,564.28 232.97,566.20 233.15,567.52 233.40,568.83 233.98,570.67"/>