<?xml version="1.0" encoding="UTF-8"?>

<!-- generated on 2023-03-23 17:07:35.556022 by randomTrips.py UNKNOWN
<configuration>
    <end value="150"/>
    <net-file value="5GoIng.net.xml"/>
    <route-file value="5GoIng.rou.xml"/>
</configuration>
-->

<!-- generated on 2023-03-23 17:07:35 by Eclipse SUMO duarouter Version 1.15.0
<configuration xmlns:xsi="http://www.w3.org/2001/XMLSchema-instance" xsi:noNamespaceSchemaLocation="http://sumo.dlr.de/xsd/duarouterConfiguration.xsd">

    <input>
        <net-file value="5GoIng.net.xml"/>
        <route-files value="trips.trips.xml"/>
    </input>

    <output>
        <output-file value="5GoIng.rou.xml"/>
        <alternatives-output value="NUL"/>
    </output>

    <time>
        <begin value="0"/>
        <end value="150"/>
    </time>

    <report>
        <no-warnings value="true"/>
        <ignore-errors value="true"/>
        <no-step-log value="true"/>
    </report>

</configuration>
-->

<routes xmlns:xsi="http://www.w3.org/2001/XMLSchema-instance" xsi:noNamespaceSchemaLocation="http://sumo.dlr.de/xsd/routes_file.xsd">
    <vehicle id="1" depart="1.00">
        <route edges="1042026729 767516515#0 767516515#1 767516523#0 767516522#0 767516522#1 1016166670#0 1016166670#1"/>
    </vehicle>
    <vehicle id="2" depart="2.00">
        <route edges="767516521#0 767516521#1 767516523#2 767516520#0 767516520#1 767516511 767516508#0 767516508#1 767516508#2 767516508#3 767516508#4 -767516508#4 -767516508#3 -767516508#2 -767516508#1 -767516508#0 -767516511 767516519#0 767516519#1"/>
    </vehicle>
    <vehicle id="5" depart="5.00">
        <route edges="-767516512 767516517#0 767516517#1 767516523#6 767516523#7 767516523#0 767516523#1 767516523#2 767516520#0 767516520#1 767516511"/>
    </vehicle>
    <vehicle id="8" depart="8.00">
        <route edges="-767516512 767516517#0"/>
    </vehicle>
    <vehicle id="10" depart="10.00">
        <route edges="767516523#0 767516523#1 767516523#2 767516520#0"/>
    </vehicle>
    <vehicle id="11" depart="11.00">
        <route edges="164051425#1 164051425#2 -164051425#2 -164051425#1 -164051425#0 767516510#0 767516510#1 767516510#2 767516508#0 767516508#1 767516508#2 767516508#3 767516508#4 -767516508#4 -767516508#3"/>
    </vehicle>
    <vehicle id="12" depart="12.00">
        <route edges="865774624#1 865774624#2 164051425#0 164051425#1 164051425#2 -164051425#2 -164051425#1 -164051425#0 767516510#0 767516510#1 767516510#2 767516508#0 767516508#1"/>
    </vehicle>
    <vehicle id="13" depart="13.00">
        <route edges="-164051425#1 -164051425#0 767516510#0 767516510#1 767516510#2 767516508#0 767516508#1 767516508#2 767516508#3 767516508#4 -767516508#4 -767516508#3 -767516508#2 -767516508#1 -767516508#0"/>
    </vehicle>
    <vehicle id="19" depart="19.00">
        <route edges="767516523#4 767516523#5 767516523#6 767516516#0 767516516#1"/>
    </vehicle>
    <vehicle id="20" depart="20.00">
        <route edges="767516520#0 767516520#1 767516511 767516508#0 767516508#1 767516508#2 767516508#3 767516508#4 -767516508#4 -767516508#3 -767516508#2 -767516508#1 -767516508#0 -767516511 767516519#0 767516519#1 767516523#4 767516523#5 767516523#6 767516516#0 767516516#1 -1042026729 -146973220#1 -146973220#0"/>
    </vehicle>
    <vehicle id="22" depart="22.00">
        <route edges="-164051425#1 -164051425#0 767516510#0 767516510#1 767516510#2 767516508#0 767516508#1 767516508#2 767516508#3 767516508#4 -767516508#4 -767516508#3 -767516508#2 -767516508#1 -767516508#0 -767516511 767516519#0 767516519#1 767516523#4 767516523#5 767516523#6 767516523#7 767516523#0 767516522#0 767516522#1 1016166670#0 1016166670#1"/>
    </vehicle>
    <vehicle id="25" depart="25.00">
        <route edges="767516508#1 767516508#2 767516508#3 767516508#4 -767516508#4 -767516508#3 -767516508#2 -767516508#1 -767516508#0 -767516511 767516519#0 767516519#1 767516523#4 767516523#5 767516523#6 767516523#7 767516523#0 767516522#0 767516522#1 1016166670#0"/>
    </vehicle>
    <vehicle id="29" depart="29.00">
        <route edges="-767516508#3 -767516508#2 -767516508#1 -767516508#0 -767516511 767516519#0 767516519#1 767516523#4 767516523#5 767516523#6 767516523#7 767516523#0 767516523#1 767516523#2 767516520#0 767516520#1 767516511 767516508#0 767516508#1 767516508#2 767516508#3"/>
    </vehicle>
    <vehicle id="30" depart="30.00">
        <route edges="865774625 767516521#0 767516521#1 767516523#2 767516523#3 767516523#4 767516518#0 767516518#1"/>
    </vehicle>
    <vehicle id="31" depart="31.00">
        <route edges="767516515#1 767516523#0 767516523#1 767516523#2 767516520#0"/>
    </vehicle>
    <vehicle id="32" depart="32.00">
        <route edges="767516523#3 767516523#4 767516523#5 767516523#6 767516523#7 767516523#0 767516522#0 767516522#1"/>
    </vehicle>
    <vehicle id="33" depart="33.00">
        <route edges="-865774623#0 -767516512 767516517#0 767516517#1 767516523#6 767516516#0 767516516#1 -1042026729 -146973220#1 -146973220#0"/>
    </vehicle>
    <vehicle id="34" depart="34.00">
        <route edges="146973220#1"/>
    </vehicle>
    <vehicle id="42" depart="42.00">
        <route edges="767516508#3 767516508#4 -767516508#4 -767516508#3 -767516508#2 -767516508#1 -767516508#0 -767516511 767516519#0 767516519#1 767516523#4 767516523#5 767516523#6 767516523#7 767516523#0 767516522#0 767516522#1 1016166670#0"/>
    </vehicle>
    <vehicle id="43" depart="43.00">
        <route edges="865774625 767516521#0 767516521#1 767516523#2 767516523#3 767516523#4 767516518#0 767516518#1 767516512"/>
    </vehicle>
    <vehicle id="44" depart="44.00">
        <route edges="-164051425#1 -164051425#0 767516510#0 767516510#1 767516510#2 767516508#0 767516508#1 767516508#2 767516508#3 767516508#4 -767516508#4 -767516508#3 -767516508#2 -767516508#1 -767516508#0 -767516511 767516519#0 767516519#1 767516523#4 767516523#5 767516523#6 767516516#0 767516516#1 -1042026729 -146973220#1 -146973220#0"/>
    </vehicle>
    <vehicle id="45" depart="45.00">
        <route edges="-164051425#2 -164051425#1 -164051425#0 767516510#0 767516510#1 767516510#2 767516508#0 767516508#1 767516508#2 767516508#3 767516508#4 -767516508#4 -767516508#3 -767516508#2 -767516508#1 -767516508#0 -767516511 767516519#0 767516519#1 767516523#4 767516518#0"/>
    </vehicle>
    <vehicle id="47" depart="47.00">
        <route edges="-164051425#0 767516510#0 767516510#1 767516510#2 767516508#0 767516508#1 767516508#2 767516508#3 767516508#4"/>
    </vehicle>
    <vehicle id="49" depart="49.00">
        <route edges="865774624#2 164051425#0 164051425#1 164051425#2 -164051425#2 -164051425#1 -164051425#0 767516510#0 767516510#1 767516510#2 767516508#0 767516508#1 767516508#2 767516508#3 767516508#4 -767516508#4 -767516508#3 -767516508#2 -767516508#1 -767516508#0 -767516511 767516519#0 767516519#1 767516523#4 767516523#5"/>
    </vehicle>
    <vehicle id="50" depart="50.00">
        <route edges="-1016166670#0 865774625 767516521#0"/>
    </vehicle>
    <vehicle id="53" depart="53.00">
        <route edges="-767516508#0 767516509#0 767516509#1 767516509#2"/>
    </vehicle>
    <vehicle id="57" depart="57.00">
        <route edges="767516523#7 767516523#0 767516523#1 767516523#2 767516523#3 767516523#4 767516523#5"/>
    </vehicle>
    <vehicle id="58" depart="58.00">
        <route edges="146973220#0 146973220#1 1042026729 767516515#0 767516515#1 767516523#0 767516523#1 767516523#2 767516523#3 767516523#4 767516518#0 767516518#1"/>
    </vehicle>
    <vehicle id="59" depart="59.00">
        <route edges="767516517#0 767516517#1 767516523#6 767516523#7 767516523#0 767516523#1 767516523#2 767516520#0 767516520#1 767516511 767516508#0 767516508#1 767516508#2 767516508#3 767516508#4 -767516508#4 -767516508#3"/>
    </vehicle>
    <vehicle id="62" depart="62.00">
        <route edges="-1016166670#0 865774625 767516521#0 767516521#1 767516523#2 767516520#0 767516520#1 767516511 767516508#0"/>
    </vehicle>
    <vehicle id="63" depart="63.00">
        <route edges="-1016166670#1 -1016166670#0 865774625 767516521#0 767516521#1 767516523#2 767516523#3 767516523#4 767516518#0 767516518#1 767516512 865774623#0 865774623#1"/>
    </vehicle>
    <vehicle id="64" depart="64.00">
        <route edges="767516523#5 767516523#6 767516523#7 767516523#0 767516523#1 767516523#2 767516523#3"/>
    </vehicle>
    <vehicle id="65" depart="65.00">
        <route edges="146973220#1 1042026729 767516515#0 767516515#1 767516523#0 767516523#1 767516523#2 767516523#3 767516523#4 767516523#5 767516523#6 767516516#0 767516516#1 -1042026729 -146973220#1"/>
    </vehicle>
    <vehicle id="67" depart="67.00">
        <route edges="-164051425#1 -164051425#0 767516510#0 767516510#1 767516510#2"/>
    </vehicle>
    <vehicle id="68" depart="68.00">
        <route edges="-164051425#0 767516510#0 767516510#1 767516510#2 767516508#0 767516508#1 767516508#2 767516508#3 767516508#4 -767516508#4 -767516508#3 -767516508#2 -767516508#1 -767516508#0 -767516511 767516519#0 767516519#1 767516523#4 767516523#5 767516523#6 767516523#7 767516523#0 767516522#0"/>
    </vehicle>
    <vehicle id="75" depart="75.00">
        <route edges="865774625 767516521#0 767516521#1 767516523#2 767516523#3 767516523#4 767516518#0 767516518#1"/>
    </vehicle>
    <vehicle id="76" depart="76.00">
        <route edges="767516509#1 767516509#2 767516512"/>
    </vehicle>
    <vehicle id="77" depart="77.00">
        <route edges="-767516508#0 -767516511 767516519#0 767516519#1 767516523#4 767516523#5 767516523#6 767516523#7 767516523#0 767516522#0 767516522#1 1016166670#0 1016166670#1"/>
    </vehicle>
    <vehicle id="79" depart="79.00">
        <route edges="-865774623#0 -767516512 767516517#0 767516517#1 767516523#6 767516523#7 767516523#0 767516522#0 767516522#1 1016166670#0"/>
    </vehicle>
    <vehicle id="80" depart="80.00">
        <route edges="-164051425#0 767516510#0 767516510#1 767516510#2 767516508#0 767516508#1 767516508#2 767516508#3 767516508#4 -767516508#4 -767516508#3 -767516508#2 -767516508#1 -767516508#0 -767516511 767516519#0 767516519#1 767516523#4 767516518#0"/>
    </vehicle>
    <vehicle id="81" depart="81.00">
        <route edges="-865774623#0 -767516512 767516517#0 767516517#1 767516523#6 767516523#7 767516523#0 767516523#1 767516523#2 767516523#3 767516523#4 767516518#0 767516518#1 767516512 865774623#0"/>
    </vehicle>
    <vehicle id="83" depart="83.00">
        <route edges="-865774623#0 -767516512 767516517#0 767516517#1 767516523#6 767516523#7 767516523#0 767516523#1 767516523#2 767516520#0 767516520#1 767516511 767516508#0 767516508#1 767516508#2 767516508#3 767516508#4 -767516508#4 -767516508#3 -767516508#2 -767516508#1 -767516508#0 -767516511 767516519#0 767516519#1"/>
    </vehicle>
    <vehicle id="84" depart="84.00">
        <route edges="-767516512 767516517#0 767516517#1 767516523#6 767516523#7 767516523#0 767516523#1 767516523#2 767516520#0 767516520#1 767516511 767516508#0 767516508#1 767516508#2 767516508#3 767516508#4 -767516508#4 -767516508#3 -767516508#2"/>
    </vehicle>
    <vehicle id="86" depart="86.00">
        <route edges="767516510#0 767516510#1 767516510#2 767516508#0 767516508#1 767516508#2 767516508#3 767516508#4 -767516508#4 -767516508#3 -767516508#2 -767516508#1 -767516508#0 -767516511 767516519#0 767516519#1 767516523#4 767516523#5 767516523#6 767516523#7 767516523#0"/>
    </vehicle>
    <vehicle id="88" depart="88.00">
        <route edges="-164051425#2 -164051425#1 -164051425#0 767516510#0 767516510#1 767516510#2 767516508#0 767516508#1 767516508#2 767516508#3 767516508#4 -767516508#4 -767516508#3 -767516508#2 -767516508#1 -767516508#0 767516509#0 767516509#1 767516509#2"/>
    </vehicle>
    <vehicle id="90" depart="90.00">
        <route edges="767516520#1 767516511 767516508#0 767516508#1 767516508#2 767516508#3 767516508#4 -767516508#4 -767516508#3 -767516508#2 -767516508#1 -767516508#0 -767516511 767516519#0 767516519#1"/>
    </vehicle>
    <vehicle id="91" depart="91.00">
        <route edges="865774625 767516521#0 767516521#1 767516523#2 767516520#0 767516520#1 767516511 767516508#0 767516508#1 767516508#2 767516508#3 767516508#4 -767516508#4 -767516508#3 -767516508#2 -767516508#1 -767516508#0"/>
    </vehicle>
    <vehicle id="92" depart="92.00">
        <route edges="767516508#3 767516508#4 -767516508#4 -767516508#3 -767516508#2 -767516508#1 -767516508#0 -767516511 767516519#0 767516519#1 767516523#4 767516523#5 767516523#6 767516523#7 767516523#0 767516523#1 767516523#2 767516520#0 767516520#1 767516511 767516508#0 767516508#1"/>
    </vehicle>
    <vehicle id="96" depart="96.00">
        <route edges="-865774623#1 -865774623#0 -767516512 767516517#0 767516517#1 767516523#6 767516523#7 767516523#0 767516523#1 767516523#2 767516523#3 767516523#4 767516518#0 767516518#1 767516512 865774623#0 865774623#1"/>
    </vehicle>
    <vehicle id="98" depart="98.00">
        <route edges="767516515#0 767516515#1 767516523#0 767516523#1 767516523#2 767516523#3 767516523#4 767516523#5 767516523#6 767516516#0 767516516#1 -1042026729 -146973220#1"/>
    </vehicle>
    <vehicle id="99" depart="99.00">
        <route edges="865774625 767516521#0 767516521#1 767516523#2 767516523#3"/>
    </vehicle>
    <vehicle id="100" depart="100.00">
        <route edges="865774624#2 164051425#0 164051425#1 164051425#2 -164051425#2 -164051425#1 -164051425#0 767516510#0 767516510#1 767516510#2 767516508#0 767516508#1 767516508#2 767516508#3 767516508#4 -767516508#4 -767516508#3 -767516508#2 -767516508#1 -767516508#0 767516509#0 767516509#1 767516509#2 767516512 865774623#0 865774623#1"/>
    </vehicle>
    <vehicle id="101" depart="101.00">
        <route edges="767516523#3 767516523#4 767516523#5 767516523#6 767516523#7 767516523#0 767516523#1 767516523#2 767516520#0 767516520#1 767516511 767516508#0 767516508#1 767516508#2 767516508#3 767516508#4 -767516508#4 -767516508#3 -767516508#2 -767516508#1 -767516508#0 -767516511"/>
    </vehicle>
    <vehicle id="102" depart="102.00">
        <route edges="767516510#1 767516510#2 767516508#0 767516508#1 767516508#2 767516508#3 767516508#4 -767516508#4 -767516508#3 -767516508#2 -767516508#1 -767516508#0 -767516511 767516519#0 767516519#1 767516523#4 767516523#5 767516523#6 767516523#7 767516523#0 767516522#0 767516522#1 1016166670#0"/>
    </vehicle>
    <vehicle id="103" depart="103.00">
        <route edges="767516508#3 767516508#4 -767516508#4 -767516508#3 -767516508#2 -767516508#1 -767516508#0 -767516511 767516519#0 767516519#1 767516523#4 767516523#5 767516523#6 767516516#0 767516516#1 -1042026729 -146973220#1"/>
    </vehicle>
    <vehicle id="110" depart="110.00">
        <route edges="865774624#2 164051425#0 164051425#1 164051425#2 -164051425#2 -164051425#1 -164051425#0 767516510#0 767516510#1 767516510#2 767516508#0 767516508#1 767516508#2 767516508#3 767516508#4 -767516508#4 -767516508#3 -767516508#2 -767516508#1 -767516508#0 -767516511 767516519#0 767516519#1 767516523#4 767516523#5 767516523#6 767516516#0 767516516#1"/>
    </vehicle>
    <vehicle id="111" depart="111.00">
        <route edges="767516515#0 767516515#1 767516523#0 767516522#0"/>
    </vehicle>
    <vehicle id="113" depart="113.00">
        <route edges="767516510#2 767516508#0 767516508#1 767516508#2 767516508#3 767516508#4 -767516508#4 -767516508#3 -767516508#2 -767516508#1 -767516508#0 -767516511 767516519#0 767516519#1 767516523#4"/>
    </vehicle>
    <vehicle id="117" depart="117.00">
        <route edges="-865774623#0 -767516512 767516517#0 767516517#1 767516523#6 767516523#7 767516523#0 767516523#1 767516523#2 767516520#0 767516520#1 767516511 767516508#0 767516508#1 767516508#2 767516508#3 767516508#4 -767516508#4 -767516508#3 -767516508#2 -767516508#1"/>
    </vehicle>
    <vehicle id="121" depart="121.00">
        <route edges="767516511 767516508#0 767516508#1 767516508#2 767516508#3 767516508#4 -767516508#4 -767516508#3 -767516508#2 -767516508#1 -767516508#0 767516509#0 767516509#1 767516509#2 767516512 865774623#0 865774623#1"/>
    </vehicle>
    <vehicle id="123" depart="123.00">
        <route edges="-865774623#1 -865774623#0 -767516512 767516517#0 767516517#1 767516523#6 767516523#7 767516523#0 767516523#1 767516523#2 767516520#0 767516520#1 767516511 767516508#0 767516508#1 767516508#2 767516508#3 767516508#4"/>
    </vehicle>
    <vehicle id="125" depart="125.00">
        <route edges="146973220#1 1042026729 767516515#0 767516515#1 767516523#0 767516522#0"/>
    </vehicle>
    <vehicle id="126" depart="126.00">
        <route edges="-164051425#0 767516510#0"/>
    </vehicle>
    <vehicle id="127" depart="127.00">
        <route edges="865774625"/>
    </vehicle>
    <vehicle id="128" depart="128.00">
        <route edges="-164051425#0 767516510#0 767516510#1 767516510#2 767516508#0 767516508#1 767516508#2 767516508#3 767516508#4 -767516508#4 -767516508#3 -767516508#2 -767516508#1 -767516508#0 -767516511 767516519#0 767516519#1 767516523#4 767516523#5 767516523#6 767516523#7 767516523#0 767516522#0 767516522#1 1016166670#0"/>
    </vehicle>
    <vehicle id="130" depart="130.00">
        <route edges="767516523#5 767516523#6"/>
    </vehicle>
    <vehicle id="131" depart="131.00">
        <route edges="767516508#1 767516508#2 767516508#3 767516508#4 -767516508#4 -767516508#3"/>
    </vehicle>
    <vehicle id="132" depart="132.00">
        <route edges="767516523#2 767516520#0 767516520#1"/>
    </vehicle>
    <vehicle id="137" depart="137.00">
        <route edges="-767516508#1"/>
    </vehicle>
    <vehicle id="142" depart="142.00">
        <route edges="767516510#1 767516510#2 767516508#0 767516508#1 767516508#2 767516508#3 767516508#4 -767516508#4 -767516508#3 -767516508#2 -767516508#1 -767516508#0 767516509#0 767516509#1 767516509#2 767516512 865774623#0"/>
    </vehicle>
    <vehicle id="145" depart="145.00">
        <route edges="-1016166670#0 865774625 767516521#0 767516521#1 767516523#2 767516523#3 767516523#4 767516523#5 767516523#6 767516523#7 767516523#0 767516522#0 767516522#1"/>
    </vehicle>
    <vehicle id="149" depart="149.00">
        <route edges="-164051425#0 767516510#0 767516510#1 767516510#2 767516508#0 767516508#1 767516508#2 767516508#3 767516508#4 -767516508#4 -767516508#3 -767516508#2 -767516508#1 -767516508#0 -767516511 767516519#0 767516519#1 767516523#4 767516523#5 767516523#6"/>
    </vehicle>
</routes>
